72
Zn2 F4 1 x 1 x 1 supercell
Zn  2.3876295889524   2.3398669919006   1.6529920555920
Zn  2.4996393529404   2.6220131326425   4.7390161983695
Zn  2.3318150490198   2.3524939967075   8.0429053124399
Zn  2.3416801828279   7.2086611926631   1.6458716703481
Zn  2.3896054661461   7.1651352770068   4.7730696259506
Zn  2.5040704016103   7.1170802668272   8.0094387696931
Zn  7.0729267302679   2.5066246291583   1.5527097600070
Zn  7.1964278965215   2.3310016292402   4.8369805879617
Zn  7.2305262408212   2.3769002926422   7.9912399327725
Zn  7.2516786407608   7.1283713105518   1.4783626698691
Zn  7.1464979910553   7.2120131593316   4.8271774119048
Zn  7.1859308555394   7.1776151590655   8.0094180013219
Zn -0.0296274002165   9.6389385924910  -0.0084194870607
Zn  9.4610019375271   9.5266322995479   3.0815627906275
Zn  9.6421357894629  -0.0368673758483   6.3781972915693
Zn  0.0608854788896   4.6604516609591   9.5939542524810
Zn  9.4903920523703   4.8687100593589   3.1545333616223
Zn -0.0105807707477   4.8646830767400   6.4349660719007
Zn  4.7823341045132  -0.0980261021911   9.5889074785149
Zn  4.8775278504293   9.6678679024407   3.1836636084165
Zn  4.6992176737512   9.5575640433657   6.4602988761217
Zn  4.8547594572921   4.6829460915237   0.0991651467302
Zn  4.7173991214527   4.9659238242546   3.2408154816507
Zn  4.8445299153033   4.7661751818518   6.4630620591184
F  3.1680167477927   3.2759861817890   0.0824316701610
F  3.0158514466172   3.7004574239285   3.1408007993768
F  3.3491614498030   3.4617866315123   6.4235255591325
F  3.2423118492398   8.1353846519545   0.0386733471226
F  3.5617248609979   8.0296695306631   3.1354398263923
F  3.1904512942514   8.1144606839345   6.3694135881752
F  8.0835139547202   3.3991723968592  -0.0203217902340
F  8.0079535247359   3.3708229271976   3.2437919805823
F  7.8694578401253   3.5849283052546   6.4609704105597
F  8.1899707292077   8.0935521574496   9.5626735407983
F  8.1376451104794   8.0148198588432   3.0865034221174
F  8.1788526310800   8.1365074730219   6.4097451413985
F  3.9541892850446   0.9133134292902   1.6101679373946
F  4.0979986418625   1.1712578236546   4.8811711579434
F  3.7888942230890   0.8757056827462   8.0479850442433
F  3.9277056011719   5.6782153307000   1.5734559033625
F  3.8857413998324   5.7412165578246   4.8422335951134
F  3.8812696104781   5.5933148658953   8.1024260533233
F  8.4648698507023   0.8470690887910   1.5297343034825
F  8.5954430989084   0.8377991545466   4.7350575593164
F  8.7327419333577   1.0896363880440   7.8753913314028
F  8.5574108652451   5.6708035419728   1.5323934919103
F  8.6321892668485   5.6899839020457   4.7510864065606
F  8.7499413465750   5.8603717989549   8.1356985490300
F  1.4049133003275   1.4389968190878   0.1841716403851
F  1.7240424169496   1.4369581084175   3.2174950197689
F  1.3495694713488   1.4582875488989   6.4053190872030
F  1.4151167003681   6.1274050798427   0.0107943384889
F  1.4230285768749   6.2848927123817   3.1454004571187
F  1.4768307059930   6.2222054428541   6.4471117203856
F  6.1664100848846   1.3823986270746   9.6316469367476
F  6.4401062091895   1.2738997708149   3.2320897834386
F  6.3174093640224   1.4092700402506   6.4595741498970
F  6.2318391645044   6.2489117847130   9.6491509790418
F  6.3308294124056   6.1638323188916   3.2374055624559
F  6.3799418319601   6.0509437527452   6.3766799079690
F  0.8539292311837   3.7847999875247   1.6638621426016
F  0.7971484516209   3.8513062083162   4.8221503753025
F  0.7708966306839   3.7483040581808   7.9661015883419
F  0.9369070545892   8.6677289105806   1.5292112323225
F  1.0027178634691   8.5580379463024   4.6871347979258
F  1.0336098998224   8.6612230816920   8.0626167926563
F  5.5840544851466   3.7627172399046   1.6273579398444
F  5.8195880604932   3.7932957535331   4.7183916517958
F  5.6994454815329   3.7793589994402   8.0440003797172
F  5.6736732991161   8.5197762557033   1.5507942143717
F  5.5013704772988   8.4545717989417   4.8547142833103
F  5.6483920661129   8.5135890681436   7.8752261649880
