64
Na4 F4 1 x 1 x 1 supercell
K  0.2077639692226  10.9385139353144  10.9875293688857
K  0.1462049675343  10.8680672297720   5.2397359137207
K 10.9808481332583   5.4800934214875   0.0546985080470
K 11.0239136693088   5.3442790461652   5.5249487171605
K  5.3974025707009  -0.0554007712524  11.0544134690599
K  5.3924028753045  11.2033697521524   5.3996085848995
K  5.3302886581940   5.6382603996569   0.0923065359616
K  5.4745528442557   5.5048107572267   5.6082575856292
K 10.8010728502215   2.8963800063964   2.8887104960236
K 10.9264367979310   2.6247908222504   8.0383921078318
K 10.8753534594005   8.2352136942600   2.7925673771754
K 10.8974166862851   8.2700945797112   8.2540379323292
K  5.3563009549928   2.8542837038561   2.7093723184242
K  5.3623371760943   2.7710415612295   8.2997001546238
K  5.5383753178891   8.3519187843842   2.7584934528417
K  5.4991723718063   8.2226961861594   8.2373352164525
K  2.6580903147643  -0.1061763836680   2.5184026169012
K  2.8734797007096  -0.0648934273475   8.0257087883613
K  2.5588178314524   5.5370094216416   2.6358982439541
K  2.7852305121285   5.3385513046360   8.0617427646879
K  8.1869045138638  10.8835261798646   2.5803348224833
K  8.2461637689935  11.0274203176764   8.3105126689972
K  8.0476281352779   5.4965730139223   2.8866606922063
K  8.1006677611418   5.1892027033422   8.1230735509813
K  2.6706197977492   2.6800788130909   0.1966058188465
K  2.6972698932044   2.8198958331902   5.3513424160606
K  2.7716524320677   8.1451016668785   0.1259688434362
K  2.8690867758606   8.0889939057023   5.4265069591738
K  8.2551775966675   2.7290739392327  -0.1107516306493
K  8.2392998716971   2.4434659377832   5.3189608731196
K  8.3257691095535   8.1843002920223  10.7719120775580
K  8.1052029428460   8.0566992626895   5.4021917794499
F  2.7869726359452   0.0143627189957  10.9772035566280
F  2.9750094868303  -0.2450144666914   5.3380329977189
F  2.5722843789126   5.4634358539853  10.8931673747015
F  2.6846328036458   5.4308365639027   5.4951648285139
F  8.2078382635749  -0.0432853094828  11.0281650005430
F  8.3002402435291  10.7425340197117   5.3332173719327
F  8.0995383240853   5.4951679553865   0.0023842796760
F  8.3902967593321   5.3010950835725   5.5632431947491
F  2.5264986036899   2.7718874313087   2.8381664408715
F  2.8970083318239   2.6486571575079   8.2730914946170
F  2.6929553342613   8.0774719500660   2.6609582716764
F  2.7652339971608   7.9719569404757   8.1708314139329
F  8.2679238804169   2.7460120124554   2.8342195477474
F  8.1291407884250   2.6255652317373   8.1735517196109
F  8.2462677517943   8.3371716213470   2.6704277077485
F  8.2862830469210   8.4009224049261   8.1669586715844
F 10.9664878689796   0.3431506895771   2.6006513466821
F  0.1314325039118  11.0177405708403   8.1722213769695
F 10.7873740298893   5.5784256279312   2.7653526747658
F 10.8821421361110   5.1781471813719   8.0353050914689
F  5.3560745785873   0.2313120934259   2.7906318118630
F  5.3630421415796  -0.0294089386628   8.3416234026380
F  5.2508255046749   5.5418756058491   2.8634800042350
F  5.6382478576277   5.5938501982626   8.3457249430428
F 10.8610047604371   2.8562775357221   0.0069579619010
F  0.1370155949116   2.6474133488874   5.3865547916074
F -0.0718683448790   8.2285065547815  10.9022007459798
F  0.0319513671853   8.1967788847765   5.4414079506748
F  5.4783574310117   2.6580686854679   0.0956703828022
F  5.4751819775976   2.9198635255751   5.5984874388826
F  5.2940241161856   8.3338647966184   0.1148614007549
F  5.4875339713465   8.1745219158091   5.5540851183844
