96
CaF2optimization 1 x 1 x 1 supercell
Ca  0.2115637426401   0.2357871129243   0.1316347781020
Ca  0.1582603166663   2.9336103289476   2.8566792911612
Ca  2.8989015795305   0.2136218037533   2.7766377311473
Ca  2.8571296655418   2.9030767251905   0.0972925309571
Ca  0.1342022032980   0.1622847913601   5.6183740709795
Ca  0.1214235509629   2.9923928838597   8.4331836134914
Ca  2.9709956882915   0.1921096543608   8.3734728658800
Ca  2.8646564337834   2.8317464073521   5.6235796704830
Ca  0.2562461359015   5.6972554352291   0.2142652826304
Ca  0.2501990694337   8.4032105291951   2.8867465714510
Ca  2.9624148709310   5.5304377340752   2.8629845922869
Ca  2.9842140616883   8.3964323661342   0.2910277290347
Ca  0.1272813534941   5.5508633863826   5.6427470694539
Ca  0.1810427162326   8.3281407921566   8.3729426708398
Ca  2.9053313340868   5.7372202288690   8.3378541157212
Ca  2.9100313074544   8.3826117381419   5.6432714917776
Ca  5.6807847355232   0.1783005052330   0.0426474426258
Ca  5.6652696634660   2.8186156871987   2.8993064552026
Ca  8.4919767117380   0.1761469907468   2.8256332226516
Ca  8.3541093464725   2.8865390037799   0.1695072472899
Ca  5.6947726234164   0.0872765957175   5.6596450586975
Ca  5.5710885681887   2.9112976526200   8.4075346315811
Ca  8.4415313117632   0.1572266446498   8.2103626521381
Ca  8.3582310056001   2.9324224655353   5.6756320417348
Ca  5.5838559358103   5.5724984453098   0.3304045378289
Ca  5.6888667974913   8.3291430660568   2.9132562870642
Ca  8.3394268804851   5.6608597590662   2.9177998981358
Ca  8.4415163983264   8.3830294598652   0.1021064053529
Ca  5.5595393012550   5.6417638138653   5.6416234912103
Ca  5.5801270041322   8.3940629733040   8.4807261708693
Ca  8.2710088294077   5.6320366486026   8.4392712936377
Ca  8.3959191219105   8.2834095481246   5.6568234165079
F  1.5111592877200   1.5770643327329   1.4991923659136
F  4.1583844496606   4.2265952859372   1.4660214522648
F  4.3783499687964   1.4217721687367   4.2835999717506
F  1.5292282331592   4.2184682681860   4.3012556152131
F  1.6267729333441   1.5204186848087   4.1390348735656
F  4.1859020392849   4.1581646066629   4.3030364577519
F  1.5302585112248   4.2229115145561   1.4852701410291
F  4.2512524267421   1.6671627733106   1.4685723078610
F  1.6070960104380   1.4302055900685   6.9748157312114
F  4.2565742368119   4.2637964755266   6.9002314621448
F  4.2935100573275   1.5830937668350   9.8654139985471
F  1.4204773575019   4.2765442493224   9.7151447853038
F  1.5488685770630   1.5800187301176   9.6665275939530
F  4.1672777726567   4.2876348106415   9.5892825333523
F  1.5656761103457   4.2642319029540   6.9248895707183
F  4.1656418673964   1.6143348892358   7.0242797372957
F  1.5896026020900   7.0903184876802   1.6001904080533
F  4.4860335793217   9.8209885523314   1.3183750552042
F  4.2187783700266   6.9761297078563   4.2418302224524
F  1.4739328998898   9.7754704410069   4.2294017747931
F  1.4199251841060   6.9794763553298   4.3028023668627
F  4.1252714764664   9.6660715206542   4.2103461821598
F  1.6506075687218   9.7282736184027   1.5820431885565
F  4.2795664556167   7.0558030141617   1.6162998070081
F  1.5372930936107   6.9911249992338   7.0110776155135
F  4.2929805323889   9.7824998027398   6.9752739692453
F  4.3070436055296   7.0124001297984   9.8401524364352
F  1.5063177988820   9.7804145096222   9.8366459154855
F  1.6210407008916   6.9569970608706   9.7991887953549
F  4.2520896768668   9.7740399302737   9.6479188125620
F  1.5220959673359   9.6460790012448   6.9882985229984
F  4.2849500857209   7.0950948515285   7.0532076563274
F  6.9009492743971   1.5444919293618   1.5869274697140
F  9.6595477722487   4.2646740790803   1.5172903464550
F  9.8757263981266   1.5780639552584   4.2968645073184
F  6.8839684129054   4.1775227061038   4.3630102894466
F  7.1392041719142   1.4401262648820   4.2130374979389
F  9.6905283579426   4.2830526788343   4.2390268762386
F  6.7898445265905   4.4388104488701   1.6792263178706
F  9.6927877337514   1.6361310454318   1.4297975509404
F  6.9380479216039   1.3340072870427   6.9994950951865
F  9.7067293802237   4.1992153144852   7.0058769832577
F  9.7659368898447   1.4813179435444   9.7329185583449
F  6.8413852640843   4.3509261571313   9.9175221372966
F  7.0569501435037   1.5276141675345   9.7281622308150
F  9.4616217060626   4.1809145845822   9.6675951986869
F  7.0532180487599   4.0984843866774   7.1640896525809
F  9.7679664027478   1.5998103584590   7.0495262190945
F  6.9862651751144   7.0538798441761   1.5697403180555
F  9.8576284802489   9.7604759045361   1.4024260899565
F  9.6342904556986   6.9095902063127   4.3454197047648
F  6.8596626694151   9.6867183572392   4.2922049485111
F  6.9472278582160   7.0398101469860   4.3585561121462
F  9.7429616457242   9.7612895837748   4.2055878650697
F  7.0223113539542   9.7911496863416   1.5779478613725
F  9.7588674098135   7.0221027022967   1.5826764345857
F  6.8364973912382   6.8935136839454   7.1544720131806
F  9.7895563936124   9.7546858631257   6.8742636711685
F  9.8040225385599   6.9699848873874   9.7298018468220
F  6.9236785038047   9.7966240010815   9.6912362298406
F  7.1089525835732   7.1097883565241   9.8937284322026
F  9.6991556315584   9.8414834462395   9.6482568343846
F  7.0518926779563   9.6860224058366   6.9420938401095
F  9.6952193852229   6.8649300657328   7.1266412997379
