64
NaFNPT 1 x 1 x 1 supercell
F  2.4408722528345   9.3677571949656   0.0867298133336
F  2.3754306198751   0.0450815817418   4.5745842774365
F  2.3624059975640   4.5397468560995   9.4343362726637
F  2.4648319541211   4.8567880728595   4.6626568985316
F  2.1195074428098   2.4490407174395   2.4030854530508
F  2.3985455587878   2.4252896661788   6.9334353635595
F  2.2217847261229   6.9757614028407   2.2854592538149
F  2.4058367270163   7.0303802558897   7.0771561092686
F  9.6371051167793   2.2247413149993  -0.0332193078092
F  0.0417120157604   2.2800064072907   4.7833097526020
F  0.0307090034239   9.4921119186293   2.4196040547729
F  0.0869338375102   9.3785538872404   6.9009088737165
F  9.4234529033596   4.8101989076140   2.3884334912414
F  9.2780776432070   4.5530978199845   7.1432221856845
F  9.4023919619630   7.0011472598095   9.3888272562003
F  9.4577878665596   6.9579718735498   4.7943294247466
F  4.7123447096705   2.3500665610443  -0.1030376988860
F  4.6559823827859   2.4300763161018   4.5604105843554
F  4.6951443819386   9.3596463133311   2.3619227184901
F  4.5265797244993   0.0412557274038   7.0597341641341
F  4.7047879461037   4.6546953618249   2.1957067892403
F  4.7076447902162   4.5678708718747   7.2705974583379
F  4.5371502836085   7.1476131064527   9.1960985539611
F  4.7139111620020   7.0904725053158   4.6395397160027
F  7.0561406589663   9.3808599628228   9.4416667362239
F  6.9153454304290   0.1928301504837   4.8812699482274
F  7.0452815195616   4.6005774999680   0.0427196160363
F  6.9688683443193   4.6356552780342   4.7784448171449
F  6.9496357196113   2.4476739543677   2.3166980036513
F  6.9792673832973   2.3002242491918   7.1675440282875
F  7.0998264355719   7.0749031484993   2.4135455851596
F  6.9038933675895   7.1920173206420   7.2748491444760
Na  2.4149129575674   2.2439003455862  -0.3860239337323
Na  2.6050558737538   2.5155989408084   4.6519706949247
Na  2.4531679786381   9.5043667445482   2.3225926786574
Na  2.4010349456396  -0.0934591356928   7.0061379999856
Na  2.2875790822939   4.5918797277642   2.3772016311837
Na  2.4226737653272   4.7606944501559   7.0876501973036
Na  2.3247129106516   7.0495738128509   9.5248999218646
Na  2.3390947313919   7.1631135383532   4.7147421299083
Na  0.0788800350318  -0.0479155898954   9.2840261270082
Na  0.1056718078418   9.4777913982908   4.6145433883231
Na  9.4800772577228   4.6151042367096   0.2067802308369
Na  9.3206591692163   4.7887879737797   4.9127305953335
Na  9.3407192743954   2.3370553469930   2.4715499851246
Na  0.0666071028507   2.4706758020415   7.1240180196522
Na  9.5047604475329   6.9628529003890   2.4431038503337
Na  0.0933415426536   7.0740047731536   7.1285918816415
Na  4.7816089721121  -0.0221079406945  -0.1036147431851
Na  4.5555309168837   9.4078880112692   4.7412332483236
Na  4.6061592605572   4.6911374635680  -0.0124214213113
Na  4.6064053131645   4.6287293902487   4.5849343581356
Na  4.7432286076981   2.3649826205334   2.2069193839204
Na  4.8253924877940   2.2310192168852   7.0979499622640
Na  4.4901295647582   7.1692515045835   2.2686251668668
Na  4.7630041206710   6.9603252384032   6.9771441517886
Na  6.9942657876299   2.3518522776702  -0.0227504798037
Na  7.1637164765459   2.3547279420227   4.7311012416454
Na  7.1381711616509  -0.0784507636820   2.3798960475921
Na  7.0638602033064  -0.0381420713146   7.1054103623481
Na  7.0766056488599   4.7613577051138   2.4341251768670
Na  6.9648348499744   4.8296539681700   7.1833776998985
Na  7.1397368640846   7.0269141438764   9.4345876483868
Na  7.1325539417731   7.2082473789302   4.7919162824615
