96 

Ca  10.9166    0.178316  0.11688
Ca  0.162899   2.94469   2.99509
Ca  2.78893    0.120247  2.94761
Ca  2.9911     2.85737   0.133836
Ca  0.260102   0.103282  5.60617
Ca  0.122125   3.02417   8.3039
Ca  2.82007    0.170132  8.32053
Ca  2.93036    2.74798   5.61018
Ca  0.233343   5.67102   0.221292
Ca  0.0711947  8.3745    2.87416
Ca  2.97746    5.55995   2.8997
Ca  2.81489    8.38463   0.39446
Ca  0.170116   5.77086   5.66771
Ca  0.131202   8.33818   8.35919
Ca  2.92078    5.66925   8.35199
Ca  2.86902    8.27223   5.67408
Ca  5.70327    0.107035  0.123176
Ca  5.63755    2.84406   2.85575
Ca  8.39199    0.219203  2.80223
Ca  8.35847    2.92323   0.146639
Ca  5.63417    0.171042  5.64794
Ca  5.64133    3.04297   8.27489
Ca  8.29118    0.116135  8.36204
Ca  8.47538    2.95384   5.689
Ca  5.71332    5.68419   0.139022
Ca  5.60806    8.3353    2.8974
Ca  8.31834    5.66123   2.9185
Ca  8.36854    8.23686   0.248592
Ca  5.61946    5.52256   5.5332
Ca  5.62128    8.46414   8.32611
Ca  8.40942    5.774     8.24073
Ca  8.42722    8.37333   5.59318
F  1.48215    1.59209   1.60189
F  4.3657     4.29844   1.55906
F  4.29899    1.37312   4.20937
F  1.70535    4.21838   4.31495
F  1.59969    1.61952   4.31389
F  4.46789    4.0555    4.29761
F  1.54307    4.21677   1.67032
F  4.29952    1.39928   1.47433
F  1.40415    1.58701   6.9396
F  4.29591    4.25924   6.91973
F  4.12961    1.42876   9.6791
F  1.49012    4.38894   9.8753
F  1.44695    1.70043   9.69433
F  4.3708     4.2033    9.75445
F  1.58461    4.13144   7.05446
F  4.23745    1.62313   6.98189
F  1.54534    6.98339   1.64945
F  4.18251    9.7394    1.63521
F  4.28104    6.96179   4.19211
F  1.48255    9.64038   4.32045
F  1.55102    7.04094   4.4599
F  4.06909    9.56563   4.18338
F  1.36796    9.82893   1.53044
F  4.25675    6.97625   1.44708
F  1.51636    6.91397   7.16051
F  4.23743    9.7745    6.90738
F  4.40945    6.92091   9.50095
F  1.47377    9.68777   9.77418
F  1.72449    7.07027   9.91574
F  4.29872    9.67448   9.64496
F  1.4651     9.63608   7.05081
F  4.24591    6.92981   6.92451
F  7.02162    1.49439   1.37795
F  9.69876    4.33992   1.58481
F  9.90081    1.57324   4.50866
F  7.1291     4.14958   4.44695
F  6.98778    1.53055   4.16986
F  9.92594    4.38562   4.27176
F  7.16365    4.38431   1.41938
F  9.71533    1.67906   1.66826
F  6.97183    1.68176   6.80428
F  9.82228    4.46255   6.97342
F  9.66611    1.44961   9.95929
F  6.95804    4.1827    9.66949
F  6.81273    1.4973    9.48724
F  9.60942    4.13643   9.69035
F  7.00475    4.47923   6.98816
F  9.58283    1.61049   7.0918
F  7.08408    6.97532   1.61549
F  9.70006    9.69023   1.62355
F  9.73208    6.9604    4.38687
F  6.85411    9.71358   4.31214
F  6.94316    6.97563   4.27643
F  9.61919    9.71826   4.25253
F  6.98643    9.53538   1.41705
F  9.64183    7.07038   1.71311
F  7.0958     7.18454   6.89772
F  9.82913    9.73514   7.05979
F  9.79625    6.91844   9.87149
F  7.13281    9.77255   9.80434
F  7.03689    7.0988    9.73726
F  9.60058    9.62483   9.68394
F  7.07133    9.71886   6.96149
F  9.75646    7.16206   7.01089




