64
Na4 F4 1 x 1 x 1 supercell
K -0.0372564556959  10.8784967295537  10.8258238107046
K  0.2177582766776  10.8254426299810   5.3016538583729
K 10.7974897917372   5.1136049293904  -0.0369336865456
K 10.9396229817828   5.6220031237059   5.5550057954403
K  5.3432640981735   0.0061520351231  10.9680124182301
K  5.5642032159138  10.8557071277679   5.3590451877885
K  5.4974504463276   5.5644466386135   0.2681734762561
K  5.6131963141071   5.4228113124201   5.6658324465511
K 11.0210945517708   2.8850352986883   2.9151721541256
K 10.8200226049420   2.7925834522866   7.9612589728018
K 10.9320105314609   8.1404154321517   2.5696112848195
K 10.8681545648717   8.1411403985931   8.2586867640164
K  5.3494070286785   2.6251616480282   2.8711318482877
K  5.4830967129325   2.8244217587582   8.2998469959744
K  5.4976040538414   8.2285507155318   2.8138636386609
K  5.3598791108583   8.0561076123239   8.1405204581780
K  2.5307060179666  -0.1149043905104   2.5276295762088
K  2.7210606073367   0.1155912134154   8.0846473666118
K  2.6811843608873   5.6947677841492   2.8787382187965
K  2.7359687869305   5.4210815056603   8.1412343770902
K  8.3145287448178  11.0105000111329   2.6682370668523
K  8.0762035472153  10.9313652506164   8.0638252842972
K  8.1202991883069   5.4777534316832   2.8352910682362
K  7.9817304142898   5.5503779528625   8.2579004075064
K  2.7042716730155   2.8191790450071   0.1469337564529
K  2.8454974663766   2.6156876811254   5.6614612755398
K  2.7019895407685   8.1137343364718   0.0224910865746
K  2.8284576390489   8.2975294167451   5.6929504942378
K  8.2112785218404   2.5282031446378   0.0303014642434
K  8.2289506351233   2.7479899056163   5.3129356508971
K  8.0660339643568   8.1612102100094  10.8703715086768
K  8.1818997104279   8.3992386346469   5.2981533249077
F  2.7003748898743   0.1554999132385  10.8305016232831
F  2.9756057766771  -0.0201760051353   5.4118165026997
F  2.6680994709464   5.4549140503012  11.0108434714307
F  2.8081221000750   5.4800465051519   5.6936934951866
F  8.2441085083420   0.0328407806324  10.7949092641883
F  8.3714968779483  10.9710440333152   5.4003859503447
F  8.0459637574455   5.3923406624981   0.1012276883967
F  8.3395703854908   5.3252757212320   5.2684280410400
F  2.7767118487608   2.7806902666711   2.8863752939945
F  2.5557782184483   2.7768951930495   8.2483152542567
F  2.8216311112472   8.2269354325766   2.7538483459093
F  2.8801598791111   8.2521303323271   8.2544811572285
F  8.4253693027074   2.7873138493558   2.7210076034343
F  8.2063490994602   2.9282410154563   8.0558913441181
F  8.4589439714807   8.3786304120135   2.4459190312137
F  8.0601923110841   8.2428981305944   7.9516569811645
F 10.9193501043991  -0.0419160199884   2.5207857986516
F -0.0866255930348  10.6608740261529   7.9731900813650
F 10.8626755613504   5.5222041327305   2.8094556785031
F 10.8134809976366   5.4737404331638   8.0805262355754
F  5.4484470694318   0.0243578863743   2.7523779057051
F  5.5008598344949  -0.0437609720653   7.9267881638371
F  5.5032029923904   5.3364303209221   3.0148261101565
F  5.3479827223344   5.3306028295065   8.2208595458278
F 10.9232192521013   2.5924401584325  -0.0027009040179
F  0.3792920485931   2.7237240672445   5.3509273522985
F -0.2949541117576   8.0916423233468  10.9629285531080
F  0.1861221454217   8.2503231769507   5.4056033498923
F  5.5280104431862   2.8144207509876   0.0961215923826
F  5.5321391667167   2.6682315202153   5.4753868879953
F  5.3433466908778   8.2610479649080   0.0963266746819
F  5.4830420302573   8.0620407335010   5.5534870876622
