72
MgF2NPT2x2x3 1 x 1 x 1 supercell
Mg  6.9538650429757   6.9107675578244   7.6526116565805
Mg  6.8155797458359   6.8813885246635   4.5515214543241
Mg  7.0375246367911   6.9364641112361   1.5052235496028
Mg  6.9183006815840   2.3484062701497   7.6979822927249
Mg  6.9083002136940   2.4685502075589   4.6483062163421
Mg  6.8494312043336   2.2782999115432   1.6397504006462
Mg  4.5206249929925   4.5969086035599   6.1877012519018
Mg  4.5313347706041   4.7691966469393   3.0033886942952
Mg  4.5905860548667   4.6142521927077   9.1172114263740
Mg  4.6538492268957   9.1303361021627   6.0859209783870
Mg  4.6572428938977   9.1990028125912   3.0595572392637
Mg  4.6544883327793  -0.0319440617008   0.0583464115766
Mg  2.2009737344447   6.9166542423343   7.5552526327836
Mg  2.2905519317217   6.8815626486538   4.5831389511785
Mg  2.3610036712684   7.0189418396430   1.4597982633688
Mg  2.2907958787210   2.2694595448140   7.4988021007770
Mg  2.3423344368601   2.3104085396369   4.5687536753491
Mg  2.3713179949169   2.3699967350094   1.5070815950392
Mg -0.0532783824363   4.6470861149236   6.1290273760202
Mg  0.0124223066575   4.5413698817305   3.1330344687540
Mg  0.0326100222216   4.5153287164006   9.3065822735941
Mg -0.1354771153936   9.2694074706027   6.1413743233585
Mg  9.3130638038269  -0.0324193299377   3.0988000134141
Mg  9.1457177553905   0.1438845455663   0.1045936517399
F  0.7782499379403   8.3313770646447   7.7336019232416
F  0.9352117607258   8.3646284241105   4.7162192966899
F  1.0402381290015   8.3795309810114   1.4356157076887
F  0.9555719867623   3.8360250171306   7.6026201822072
F  0.9264857051332   3.6142467585336   4.6491086998882
F  0.9844317512635   3.7311497444168   1.5653516335531
F  8.2137039862267   0.9163164080573   7.7506147062714
F  8.3589914185952   0.9820257362891   4.5992516581180
F  8.3794971623359   0.8627179387715   1.6636851409392
F  8.1818536029739   5.4741675229495   7.7194042989600
F  8.2505334207942   5.5245479638856   4.6021687465656
F  8.4652184264468   5.4873411526201   1.6220524584174
F  7.9113520414503   7.7205143075515   6.0625524631340
F  7.8931348761649   7.8260013993605   3.1478798443344
F  7.9039132980109   7.8683392957204   9.2507558517567
F  7.8290789736421   3.2243272980906   6.2045989593386
F  7.7526743262325   3.3823715882175   3.0629781072513
F  7.8766518422642   3.1477278512162   0.0545755718958
F  5.9163284505295   6.1229324459447   6.0777285020313
F  5.9819580359794   5.9859738949714   2.8695201378680
F  6.0177684377383   5.8700166534926  -0.0132150270526
F  6.1621060884107   1.3812135587703   6.0459153102743
F  6.0552334983012   1.2136940873361   3.1911175826366
F  5.9754230646314   1.3706889466597   9.2107268829889
F  5.6079673972938   8.4153245350572   7.6938991341497
F  5.4730389085571   8.2693769907593   4.5671420781960
F  5.7063334235476   8.3672713514540   1.5723867356213
F  5.6107696333796   3.7554865975977   7.6826788019519
F  5.5242395973281   3.7976886832154   4.4881638088800
F  5.4173904199293   3.7102675486386   1.5635573631276
F  3.7206005972001   0.9011713702861   7.4820917314754
F  3.7524330223199   1.0074332121018   4.4774121442042
F  3.8260532828013   1.0573688619876   1.5703631338758
F  3.6656927141938   5.4856712481752   7.6524523360818
F  3.6391021133112   5.5204546790107   4.7081246740128
F  3.6251925147584   5.4599780240693   1.4528083738492
F  3.2747483678387   7.6999494681370   6.1780888813461
F  3.4495533044221   7.6850754858156   2.8992956378174
F  3.2304291611784   7.9275293105532  -0.0103318475982
F  3.2258196216797   3.1814810574104   6.0789434072439
F  3.0871171871415   3.4366253318063   3.0352775639172
F  3.1712558386802   3.2797387079678   9.0233156639222
F  1.3746605852832   6.0377470399717   6.0032048299674
F  1.5247759960107   6.0480856459330   3.0964919993803
F  1.3175672622315   6.0428778723769  -0.0454357658914
F  1.3245805533903   1.4377346462348   6.0740900442551
F  1.5402361480896   1.3462131670931   3.0285926148676
F  1.5752369502700   1.3517448573263   9.1321525898495
