72
MgF2NPT2x2x3 1 x 1 x 1 supercell
Mg  6.9141238186721   6.9179150493570   7.5617044823297
Mg  7.0363280768427   6.9477311821997   4.4766522701171
Mg  6.9183774554404   6.9964213779825   1.3300647662953
Mg  6.9192166642418   2.3468992745250   7.5933462139372
Mg  7.0066063295680   2.3551654534862   4.6331100937526
Mg  6.8047745790415   2.2501194007359   1.5826081211463
Mg  4.5148805822629   4.7300620204521   6.1810544850828
Mg  4.6261540487279   4.7004148756782   3.1667045617190
Mg  4.6288781031179   4.6235934357523   9.1817015674568
Mg  4.5839539007428   9.1634143643614   6.2088506798961
Mg  4.7250270449760   9.2226514309252   3.0687411164491
Mg  4.5274854466921   0.1449999906166   9.1576237379648
Mg  2.3327566001803   6.9413887678517   7.6493791586015
Mg  2.1752403991596   6.9278638059119   4.5664104466730
Mg  2.4493259197638   6.9007432546336   1.5119242882297
Mg  2.3530543044006   2.3686786750077   7.7160815602978
Mg  2.3648617448245   2.3035779628096   4.6126829578306
Mg  2.2954075560800   2.3526679799259   1.5304365064122
Mg  9.1836232296680   4.6513600798169   6.1494285466113
Mg  9.2408912339416   4.5616975804311   3.0820592293004
Mg  0.0499284863639   4.5207076199785   0.0697003429187
Mg  0.0271370063528   0.0429380379007   6.1586364958198
Mg  9.1829987688337   9.1968610598016   3.0447556584386
Mg  0.0145992564411   9.2088969299400   0.0842266306736
F  0.9179087083305   8.2898975644779   7.7177227609535
F  0.7810913270831   8.2478345112992   4.5701627856008
F  0.8489750730957   8.2359006071565   1.5635405722283
F  0.8588494120383   3.6551974156332   7.6954046724578
F  0.8994410302651   3.6102333697911   4.6303499677758
F  0.9471440140198   3.6576963683014   1.5147788975608
F  8.3633815824881   0.8862864923908   7.6378613714331
F  8.4173804811386   0.9255177011968   4.6400398830939
F  8.2644754912024   0.8194506942712   1.6102321524131
F  8.2110281148817   5.3964437287072   7.6921330141517
F  8.4824097339400   5.5577751959149   4.5007323033024
F  8.3510295530524   5.5690853787773   1.5117203547701
F  7.8266124288270   7.7929464556519   6.1036676596035
F  7.8940883108573   7.7993990635328   2.9599883883188
F  7.9158550464793   7.8259949013106   9.0075230188496
F  7.8709157756932   3.1157777931963   5.9973406469774
F  7.8286988028566   3.2347528816551   3.0721779599392
F  7.8976367829706   3.0851516639316   0.1220535787167
F  6.0984924581344   5.9927824708597   5.9159857042587
F  6.0299915543823   6.0618966496933   3.0301593115978
F  6.0120150325585   6.0476500680239   9.1655786120169
F  5.9732138743523   1.4380520429436   6.1356039515614
F  6.0084337427404   1.4976608277924   3.1805247493821
F  5.9745166910122   1.4691274512098   9.1709862001457
F  5.4741664075189   8.3357944651356   7.8324478654656
F  5.5776028211800   8.2888111597814   4.6386002285632
F  5.5226642268403   8.4218416552233   1.4356511542997
F  5.5264281864747   3.7893267032996   7.6726947856406
F  5.5191944247744   3.7340599319115   4.5652404691216
F  5.5200809650262   3.6873619094788   1.5464539600309
F  3.7424538688110   0.8329256438778   7.5837697888289
F  3.6614059707232   0.8737124118931   4.6880399062318
F  3.7343375419612   1.0436498830845   1.6158057521110
F  3.7518106124595   5.6529950731712   7.7483243492788
F  3.7503498085951   5.6584179446741   4.6896553971312
F  3.7285798374247   5.5350741263696   1.3296719579477
F  3.1218190242137   7.7272157359651   6.0671524600536
F  3.2678240685966   7.9285551284747   3.0975717616700
F  3.1020511179270   7.9334719602134   0.0065459794083
F  3.2137439114600   3.2484297294796   6.1969449508696
F  3.2192605214212   3.3292602911615   3.1041039679946
F  3.2481654314003   3.2896681800466   9.0884646772362
F  1.3051613231911   6.0304094947867   6.0742379770614
F  1.4994863241796   5.9500720306755   2.9656916386448
F  1.4635699808950   5.9182373778746   9.1432293045314
F  1.4443625640292   1.4004917637572   6.1519925438760
F  1.5262882201661   1.2723108930923   2.9953949464500
F  1.3451588022940   1.5165177885482   9.1788904810702
